<nodes>
    <node id="1" x="-300.0" y="5.0" />
    <node id="2" x="+300.0" y="5.0" />
    <node id="3" x="5.0" y="-300.0" />
    <node id="4" x="5.0" y="+300.0" />
    <node id="5" x="5.0" y="5.0" />
</nodes>
